LTspice 24.1.10 for Windows
Circuit: C:\Users\avent\OneDrive\Documents\EE499-FYP\LTSpice Boost Converter\LTC1871_BOM_Caps_Rev5b_WithCin_2.net
Start Time: Thu Apr 16 23:31:01 2026
solver = Normal
Maximum thread count: 16
tnom = 27
temp = 27
method = trap
Instance "m1:M1": Length shorter than recommended for a level 3 MOSFET.
Instance "m1:M2": Length shorter than recommended for a level 3 MOSFET.
Instance "m2:M1": Width narrower than recommended for a level 3 MOSFET.
Per .tran options, skipping operating point for transient analysis.
Warning: Simulation tolerance relaxed to achieve convergence from 3.8193138968353706e-06 to 3.8193138968363709e-06 seconds.
Total elapsed time: 6.205 seconds.

Files loaded:
C:\Users\avent\OneDrive\Documents\EE499-FYP\LTSpice Boost Converter\LTC1871_BOM_Caps_Rev5b_WithCin_2.net
C:\Users\avent\AppData\Local\LTspice\lib\cmp\standard.dio
C:\Users\avent\AppData\Local\LTspice\lib\sub\SQ4184EY_PS.LIB
C:\Users\avent\AppData\Local\LTspice\lib\sub\DMP3099L.lib
C:\Users\avent\AppData\Local\LTspice\lib\sub\LTC1871.sub

vout_before: AVG(V(OUT))=12.2609933341 FROM 0 TO 0.0004
vin_before: AVG(V(IN))=9.55805893221 FROM 0 TO 0.0004
vout_ripple_pre: PP(V(OUT))=0.236025790594 FROM 0 TO 0.0004
vout_droop1: MIN(V(OUT))=12.1424245834 FROM 0.0005 TO 0.0014
vout_post1: AVG(V(OUT))=12.2829880012 FROM 0.001 TO 0.0014
vin_droop1: MIN(V(IN))=9.30440235138 FROM 0.0005 TO 0.0014
vout_idle: AVG(V(OUT))=12.2516389226 FROM 0.0021 TO 0.0034
vout_droop2: MIN(V(OUT))=12.1118993759 FROM 0.0035 TO 0.0044
vout_post2: AVG(V(OUT))=12.3256858812 FROM 0.0038 TO 0.0044
vin_droop2: MIN(V(IN))=9.1616897583 FROM 0.0035 TO 0.0044
vout_ripple: PP(V(OUT))=0.476185798645 FROM 0.0038 TO 0.0044
il_peak: MAX(I(L1))=10.8865432739 FROM 0.0039 TO 0.0044
il_peak_pre: MAX(I(L1))=6.79704236984 FROM 0 TO 0.0004
pin: AVG(V(IN)*(-I(V1)))=30.9129493282 FROM 0.0042 TO 0.0044
pout: AVG(V(OUT)*I(I1))=24.6513717625 FROM 0.0038 TO 0.0044
loadreg: abs(Vout_before-Vout_post2)=0.064692547112
eff: Pout/Pin*100=79.744483455
vin_drop1: Vin_before-Vin_droop1=0.253656580829
vin_drop2: Vin_before-Vin_droop2=0.396369173907
dc_dev: RMS(V(out) - 12.1985)=0.128719148114 FROM 0 TO 0.005
