LTspice 24.1.10 for Windows
Circuit: C:\Users\avent\Downloads\LTC1871_Rev2_1.net
Start Time: Mon Apr  6 00:08:24 2026
solver = Normal
Maximum thread count: 16
tnom = 27
temp = 27
method = trap
Direct Newton iteration for .op point succeeded.
.step vin=8
.step vin=9.6
.step vin=11
Total elapsed time: 5.528 seconds.

Files loaded:
C:\Users\avent\Downloads\LTC1871_Rev2_1.net
C:\Users\avent\AppData\Local\LTspice\lib\cmp\standard.dio
C:\Users\avent\AppData\Local\LTspice\lib\cmp\standard.mos
C:\Users\avent\AppData\Local\LTspice\lib\sub\LTC1871.sub


Measurement: vout_avg
  step	AVG(V(OUT))	FROM	TO
     1	12.1961714872	0.001	0.002
     2	12.2000391057	0.001	0.002
     3	12.2023311079	0.001	0.002

Measurement: vout_ripple
  step	PP(V(OUT))	FROM	TO
     1	0.137559890747	0.0015	0.002
     2	0.187001228333	0.0015	0.002
     3	0.178408622742	0.0015	0.002
