LTspice 24.1.3 for Windows
Circuit: C:\Users\avent\Documents\EE499-FYP\LTSpice Boost Converter\LTC1871_BOM_Caps_Rev5b_WithCin_2.net
Start Time: Mon Apr 13 15:05:34 2026
solver = Alternate
Maximum thread count: 16
tnom = 27
temp = 27
method = trap
Instance "m1:M1": Length shorter than recommended for a level 3 MOSFET.
Instance "m1:M2": Length shorter than recommended for a level 3 MOSFET.
Instance "m2:M1": Width narrower than recommended for a level 3 MOSFET.
Per .tran options, skipping operating point for transient analysis.
Total elapsed time: 18.021 seconds.

Files loaded:
C:\Users\avent\Documents\EE499-FYP\LTSpice Boost Converter\LTC1871_BOM_Caps_Rev5b_WithCin_2.net
C:\Users\avent\AppData\Local\LTspice\lib\cmp\standard.dio
C:\Users\avent\AppData\Local\LTspice\lib\sub\SQ4184EY_PS.LIB
C:\Users\avent\AppData\Local\LTspice\lib\sub\DMP3099L.lib
C:\Users\avent\AppData\Local\LTspice\lib\sub\LTC1871.sub

Vout_before: AVG(V(OUT))=12.2610456668 FROM 0 TO 0.0004
Vin_before: AVG(V(IN))=9.55797835169 FROM 0 TO 0.0004
Vout_ripple_pre: PP(V(OUT))=0.237968444824 FROM 0 TO 0.0004
Vout_droop1: MIN(V(OUT))=12.1425800323 FROM 0.0005 TO 0.0014
Vout_post1: AVG(V(OUT))=12.2830126899 FROM 0.001 TO 0.0014
Vin_droop1: MIN(V(IN))=9.30422401428 FROM 0.0005 TO 0.0014
Vout_idle: AVG(V(OUT))=12.2514015067 FROM 0.0021 TO 0.0034
Vout_droop2: MIN(V(OUT))=12.111369133 FROM 0.0035 TO 0.0044
Vout_post2: AVG(V(OUT))=12.3183721202 FROM 0.0038 TO 0.0044
Vin_droop2: MIN(V(IN))=9.15992641449 FROM 0.0035 TO 0.0044
Vout_ripple: PP(V(OUT))=0.469630241394 FROM 0.0038 TO 0.0044
IL_peak: MAX(I(L1))=10.9411172867 FROM 0.0039 TO 0.0044
IL_peak_pre: MAX(I(L1))=6.80454206467 FROM 0 TO 0.0004
Pin: AVG(V(IN)*(-I(V1)))=32.0416083759 FROM 0.0042 TO 0.0044
Pout: AVG(V(OUT)*I(I1))=24.6367442404 FROM 0.0038 TO 0.0044
LoadReg: abs(Vout_before-Vout_post2)=0.0573264534266
Eff: Pout/Pin*100=76.8898488223
Vin_drop1: Vin_before-Vin_droop1=0.253754337405
Vin_drop2: Vin_before-Vin_droop2=0.398051937197
DC_dev: RMS(V(out) - 12.1985)=0.128477753649 FROM 0 TO 0.005
