LTspice 24.1.3 for Windows
Circuit: C:\Users\avent\Downloads\LTC1871_BOM_Caps_Rev4.net
Start Time: Wed Apr  1 15:55:25 2026
solver = Alternate
Maximum thread count: 16
tnom = 27
temp = 27
method = trap
Direct Newton iteration failed to find .op point.  (Use ".option noopiter" to skip.)
Starting Gmin stepping
Gmin = 10
Gmin = 1.07374
Gmin = 0.115292
Gmin = 0.0123794
vernier = 0.5
vernier = 0.25
vernier = 0.125
Gmin = 0.00682909
vernier = 0.0625
vernier = 0.0833333
Gmin = 0.00594062
vernier = 0.111111
vernier = 0.0555555
Gmin = 0.00486935
vernier = 0.0277778
vernier = 0.0138889
vernier = 0.00694444
vernier = 0.00347222
vernier = 0.00173611
vernier = 0.000868055
vernier = 0.000434028
Gmin = 0
Gmin stepping failed

Starting source stepping with srcstepmethod=0
Source Step = 3.0303%
Source Step = 12.1271%
Source Step = 12.1567%
Source Step = 12.1863%
Source Step = 12.2159%
Source Step = 12.2455%
Source Step = 12.2751%
vernier = 0.00146484
Source Step = 12.3106%
Source Step = 12.355%
Source Step = 12.3994%
Source Step = 12.4438%
Source Step = 12.4882%
vernier = 0.00219727
Source Step = 12.5392%
Source Step = 12.6058%
Source Step = 12.6724%
Source Step = 12.739%
Source Step = 12.8055%
vernier = 0.0032959
Source Step = 12.8788%
Source Step = 12.9787%
Source Step = 13.0785%
Source Step = 13.1784%
Source Step = 13.2783%
vernier = 0.00494385
Source Step = 13.3832%
Source Step = 13.533%
Source Step = 13.6828%
Source Step = 13.8326%
Source Step = 13.9824%
Source Step = 14.1322%
vernier = 0.00741577
Source Step = 14.3569%
Source Step = 14.5817%
Source Step = 14.8064%
Source Step = 15.0311%
Source Step = 15.2558%
vernier = 0.0111237
Source Step = 15.5817%
Source Step = 15.9188%
Source Step = 16.2558%
Source Step = 16.5929%
Source Step = 16.93%
vernier = 0.0166855
Source Step = 17.4019%
Source Step = 17.9075%
Source Step = 18.4132%
Source Step = 18.9188%
Source Step = 19.4244%
vernier = 0.0250282
Source Step = 20.107%
Source Step = 20.8654%
Source Step = 21.6238%
Source Step = 22.3823%
Source Step = 23.1407%
vernier = 0.0375423
Source Step = 24.1267%
Source Step = 25.2643%
Source Step = 26.402%
Source Step = 27.5396%
Source Step = 28.6773%
vernier = 0.0563135
Source Step = 30.0993%
Source Step = 31.8058%
Source Step = 33.5123%
Source Step = 35.2187%
Source Step = 36.9252%
vernier = 0.0844703
Source Step = 38.973%
Source Step = 41.5327%
Source Step = 44.0924%
Source Step = 46.6521%
Source Step = 49.2118%
vernier = 0.126705
Source Step = 52.1554%
Source Step = 55.995%
Source Step = 59.8346%
Source Step = 63.6741%
Source Step = 67.5137%
vernier = 0.190058
Source Step = 71.7372%
Source Step = 77.4965%
Source Step = 83.2559%
Source Step = 89.0152%
Source Step = 93.7666%
vernier = 0.0118786
Source Step = 93.7037%
Source Step = 93.7936%
Source Step = 93.8836%
Source Step = 93.9736%
Source Step = 94.0636%
Source Step = 94.1536%
Source Step = 94.2436%
Source Step = 94.3336%
Source Step = 94.4236%
Source Step = 94.5136%
Source Step = 94.6035%
Source Step = 94.6935%
Source Step = 94.7835%
vernier = 0.00445449
Source Step = 94.9185%
Source Step = 95.0535%
Source Step = 95.1885%
Source Step = 95.3235%
Source Step = 95.4585%
vernier = 0.00668173
Source Step = 95.6542%
Source Step = 95.8567%
Source Step = 96.0591%
Source Step = 96.2616%
Source Step = 96.4641%
vernier = 0.0100226
Source Step = 96.7476%
Source Step = 97.0513%
Source Step = 97.355%
Source Step = 97.6587%
Source Step = 97.9624%
vernier = 0.0150339
Source Step = 98.3724%
Source Step = 98.828%
Source Step = 99.2836%
Source Step = 99.7391%
Source stepping succeeded in finding the operating point.

Total elapsed time: 11.720 seconds.

Files loaded:
C:\Users\avent\Downloads\LTC1871_BOM_Caps_Rev4.net
C:\Users\avent\AppData\Local\LTspice\lib\cmp\standard.dio
C:\Users\avent\AppData\Local\LTspice\lib\cmp\standard.mos
C:\Users\avent\AppData\Local\LTspice\lib\sub\LTC1871.sub

Vout_before: AVG(V(OUT))=12.1697695526 FROM 0 TO 0.0004
Vout_droop1: MIN(V(OUT))=12.0970582962 FROM 0.0005 TO 0.0014
Vout_recov1: TIME=0.000531679664354 at 0.000531679664354
Vout_idle: AVG(V(OUT))=12.190569428 FROM 0.0021 TO 0.0034
Vout_droop2: MIN(V(OUT))=12.0889196396 FROM 0.0035 TO 0.0044
Vout_recov2: TIME=0.00354057127126 at 0.00354057127126
Vout_ripple: PP(V(OUT))=0.197643280029 FROM 0.0036 TO 0.0044
IL_peak: MAX(I(L1))=3.55364274979 FROM 0 TO 0.0004
Pin: AVG(V(IN)*(-I(V1)))=25.4012071258 FROM 0.0036 TO 0.0044
Pout: AVG(V(OUT)*I(I1))=24.390385864 FROM 0.0036 TO 0.0044
DC_dev: RMS(V(out) - 12.1985)=0.0660928185976 FROM 0 TO 0.005
