LTspice 24.1.10 for Windows
Circuit: C:\Users\avent\OneDrive\Documents\EE499-FYP\LTSpice Boost Converter\LTC1871_Validated_Final_Fixed_V2.net
Start Time: Sun Apr 19 05:27:19 2026
Options: gmin=1e-12 cshunt=1e-15
solver = Normal
Maximum thread count: 16
tnom = 27
temp = 27
method = trap
Direct Newton iteration for .op point succeeded.
Total elapsed time: 19.005 seconds.

Files loaded:
C:\Users\avent\OneDrive\Documents\EE499-FYP\LTSpice Boost Converter\LTC1871_Validated_Final_Fixed_V2.net
C:\Users\avent\AppData\Local\LTspice\lib\cmp\standard.dio
C:\Users\avent\AppData\Local\LTspice\lib\cmp\standard.mos
C:\Users\avent\AppData\Local\LTspice\lib\sub\LTC1871.sub

vout_before: AVG(V(OUT))=12.1995234942 FROM 0.004 TO 0.005
vout_droop: MIN(V(OUT))=12.0720081329 FROM 0.0051 TO 0.0054
vout_recovery: TIME=0.00503047475981 at 0.00503047475981
vout_after: AVG(V(OUT))=12.1970047593 FROM 0.006 TO 0.007
vout_ripple: PP(V(OUT))=0.175093650818 FROM 0.006 TO 0.007
il_peak: MAX(I(L1))=3.56395888329 FROM 0.004 TO 0.005
pin: AVG(V(IN)*(-I(V1)))=27.0897277836 FROM 0.006 TO 0.007
pout: AVG(V(OUT)*I(I1))=24.3940095186 FROM 0.006 TO 0.007
eff: Pout/Pin*100=90.0489281896
