LTspice 24.1.10 for Windows
Circuit: C:\Users\avent\OneDrive\Documents\EE499-FYP\LTSpice Boost Converter\LTC1871_Validated_Final_Fixed_V2.net
Start Time: Fri Apr 24 10:19:53 2026
Options: gmin=1e-12 cshunt=1e-15
solver = Normal
Maximum thread count: 16
tnom = 27
temp = 27
method = trap
Direct Newton iteration for .op point succeeded.
Total elapsed time: 11.473 seconds.

Files loaded:
C:\Users\avent\OneDrive\Documents\EE499-FYP\LTSpice Boost Converter\LTC1871_Validated_Final_Fixed_V2.net
C:\Users\avent\AppData\Local\LTspice\lib\cmp\standard.dio
C:\Users\avent\AppData\Local\LTspice\lib\cmp\standard.bjt
C:\Users\avent\AppData\Local\LTspice\lib\cmp\standard.mos
C:\Users\avent\AppData\Local\LTspice\lib\sub\LTC1871.sub

vout_before: AVG(V(OUT))=12.1981902126 FROM 0.004 TO 0.005
vout_after: AVG(V(OUT))=12.1951425788 FROM 0.006 TO 0.007
vout_droop: MIN(V(OUT))=11.9795951843 FROM 0.0051 TO 0.0054
vout_droop_mv: (Vout_before-Vout_droop)*1000=218.595028324
vout_droop_pct: (Vout_before-Vout_droop)/Vout_before*100=1.79202836251
vout_recovery: TIME=0.00502137465012 at 0.00502137465012
vout_ripple: PP(V(OUT))=0.0271787643433 FROM 0.006 TO 0.007
vout_ripple_mv: Vout_ripple*1000=27.1787643433
il_peak: MAX(I(L1))=3.3607878685 FROM 0.004 TO 0.005
pin: AVG(V(IN)*(-I(V1)))=28.055328135 FROM 0.006 TO 0.007
pout: AVG(V(OUT)*I(I1))=24.3902851577 FROM 0.006 TO 0.007
eff: Pout/Pin*100=86.9363745821
