LTspice 24.1.10 for Windows
Circuit: C:\Users\avent\OneDrive\Documents\EE499-FYP\LTSpice Boost Converter\LTC1871_BOM_Caps_Rev5b_WithCin_2_Min_Value_Test.net
Start Time: Sun Apr 12 12:09:58 2026
solver = Normal
Maximum thread count: 16
tnom = 27
temp = 27
method = trap
Per .tran options, skipping operating point for transient analysis.
Total elapsed time: 7.412 seconds.

Files loaded:
C:\Users\avent\OneDrive\Documents\EE499-FYP\LTSpice Boost Converter\LTC1871_BOM_Caps_Rev5b_WithCin_2_Min_Value_Test.net
C:\Users\avent\AppData\Local\LTspice\lib\cmp\standard.dio
C:\Users\avent\AppData\Local\LTspice\lib\cmp\standard.mos
C:\Users\avent\AppData\Local\LTspice\lib\sub\LTC1871.sub

vout_before: AVG(V(OUT))=12.2257591226 FROM 0 TO 0.0004
vin_before: AVG(V(IN))=7.94713243971 FROM 0 TO 0.0004
vout_ripple_pre: PP(V(OUT))=0.164279937744 FROM 0 TO 0.0004
vout_droop1: MIN(V(OUT))=12.1342086792 FROM 0.0005 TO 0.0014
vout_post1: AVG(V(OUT))=12.2310739872 FROM 0.001 TO 0.0014
vin_droop1: MIN(V(IN))=7.68440723419 FROM 0.0005 TO 0.0014
vout_idle: AVG(V(OUT))=12.2203480763 FROM 0.0021 TO 0.0034
vout_droop2: MIN(V(OUT))=12.0994672775 FROM 0.0035 TO 0.0044
vout_post2: AVG(V(OUT))=12.2387102002 FROM 0.0038 TO 0.0044
vin_droop2: MIN(V(IN))=7.58535575867 FROM 0.0035 TO 0.0044
vout_ripple: PP(V(OUT))=0.287169456482 FROM 0.0038 TO 0.0044
il_peak: MAX(I(L1))=10.3798666 FROM 0.0039 TO 0.0044
il_peak_pre: MAX(I(L1))=7.42139339447 FROM 0 TO 0.0004
pin: AVG(V(IN)*(-I(V1)))=26.1306409806 FROM 0.0042 TO 0.0044
pout: AVG(V(OUT)*I(I1))=24.4774204004 FROM 0.0038 TO 0.0044
loadreg: abs(Vout_before-Vout_post2)=0.0129510776279
eff: Pout/Pin*100=93.6732490356
vin_drop1: Vin_before-Vin_droop1=0.262725205513
vin_drop2: Vin_before-Vin_droop2=0.361776681038
dc_dev: RMS(V(out) - 12.1985)=0.0727920561308 FROM 0 TO 0.005
