LTspice 24.1.10 for Windows
Circuit: C:\Users\avent\OneDrive\Documents\EE499-FYP\LTSpice Boost Converter\LTC1871_BOM_Caps_Rev5b_WithCin_2.net
Start Time: Wed Apr  8 19:27:41 2026
solver = Normal
Maximum thread count: 16
tnom = 27
temp = 27
method = trap
Per .tran options, skipping operating point for transient analysis.
Total elapsed time: 5.473 seconds.

Files loaded:
C:\Users\avent\OneDrive\Documents\EE499-FYP\LTSpice Boost Converter\LTC1871_BOM_Caps_Rev5b_WithCin_2.net
C:\Users\avent\AppData\Local\LTspice\lib\cmp\standard.dio
C:\Users\avent\AppData\Local\LTspice\lib\cmp\standard.mos
C:\Users\avent\AppData\Local\LTspice\lib\sub\LTC1871.sub

vout_before: AVG(V(OUT))=12.2168309902 FROM 0 TO 0.0004
vin_before: AVG(V(IN))=9.95889621568 FROM 0 TO 0.0004
vout_ripple_pre: PP(V(OUT))=0.109069824219 FROM 0 TO 0.0004
vout_droop1: MIN(V(OUT))=12.1540203094 FROM 0.0005 TO 0.0014
vout_post1: AVG(V(OUT))=12.1941586888 FROM 0.001 TO 0.0014
vin_droop1: MIN(V(IN))=9.84801483154 FROM 0.0005 TO 0.0014
vout_idle: AVG(V(OUT))=12.2244755294 FROM 0.0021 TO 0.0034
vout_droop2: MIN(V(OUT))=12.1350021362 FROM 0.0035 TO 0.0044
vout_post2: AVG(V(OUT))=12.1933517446 FROM 0.0038 TO 0.0044
vin_droop2: MIN(V(IN))=9.787317276 FROM 0.0035 TO 0.0044
vout_ripple: PP(V(OUT))=0.115665435791 FROM 0.0038 TO 0.0044
il_peak: MAX(I(L1))=5.89129114151 FROM 0.0039 TO 0.0044
il_peak_pre: MAX(I(L1))=3.57313537598 FROM 0 TO 0.0004
pin: AVG(V(IN)*(-I(V1)))=25.8706337394 FROM 0.0042 TO 0.0044
pout: AVG(V(OUT)*I(I1))=24.3867034893 FROM 0.0038 TO 0.0044
loadreg: abs(Vout_before-Vout_post2)=0.0234792455238
eff: Pout/Pin*100=94.2640359525
vin_drop1: Vin_before-Vin_droop1=0.110881384133
vin_drop2: Vin_before-Vin_droop2=0.171578939675
dc_dev: RMS(V(out) - 12.1985)=0.0348730642491 FROM 0 TO 0.005
