LTspice 24.1.10 for Windows
Circuit: C:\Users\avent\OneDrive\Documents\EE499-FYP\LTSpice Boost Converter\LTC1871_BOM_Caps_Rev5b_WithCin.net
Start Time: Sat Apr 11 07:41:22 2026
solver = Normal
Maximum thread count: 16
tnom = 27
temp = 27
method = trap
Singular matrix:  Check node n001
   Iteration No. 11
Direct Newton iteration failed to find .op point.  (Use ".option noopiter" to skip.)
Starting Gmin stepping
Gmin = 10
Gmin = 1.07374
Gmin = 0.115292
Gmin = 0.0123794
vernier = 0.5
vernier = 0.25
vernier = 0.125
Gmin = 0.00682909
vernier = 0.0625
vernier = 0.0833333
Gmin = 0.00594062
vernier = 0.111111
vernier = 0.0555555
Gmin = 0.00486935
vernier = 0.0277778
vernier = 0.0138889
vernier = 0.00694444
vernier = 0.00347222
vernier = 0.00173611
vernier = 0.000868055
vernier = 0.000434028
Singular matrix:  Check node n001
   Iteration No. 7
Gmin = 0
Singular matrix:  Check node n001
   Iteration No. 1
Gmin stepping failed

Starting source stepping with srcstepmethod=0
Source Step = 3.0303%
vernier = 0.25
Source Step = 0.0621449%
Source Step = 0.0917377%
Source Step = 0.12133%
Source Step = 0.150923%
Source Step = 0.180516%
vernier = 0.00146484
Source Step = 0.213068%
Source Step = 0.257457%
Source Step = 0.301847%
Source Step = 0.346236%
Source Step = 0.390625%
vernier = 0.00219727
Source Step = 0.437234%
Source Step = 0.503817%
Source Step = 0.570401%
Source Step = 0.636985%
Source Step = 0.703569%
Source Step = 0.770153%
vernier = 0.0032959
Source Step = 0.870028%
Source Step = 0.969904%
Source Step = 1.06978%
Source Step = 1.16966%
Source Step = 1.26953%
vernier = 0.00494385
Source Step = 1.41435%
Source Step = 1.56416%
Source Step = 1.71398%
Source Step = 1.86379%
Source Step = 2.01361%
vernier = 0.00741577
Source Step = 2.22334%
Source Step = 2.44806%
Source Step = 2.67278%
Source Step = 2.89751%
Source Step = 3.12223%
vernier = 0.0111237
Source Step = 3.4256%
Source Step = 3.76268%
Source Step = 4.09976%
Source Step = 4.43684%
Source Step = 4.77392%
vernier = 0.0166855
Source Step = 5.21212%
Source Step = 5.71775%
Source Step = 6.22337%
Source Step = 6.72899%
Source Step = 7.23461%
vernier = 0.0250282
Source Step = 7.86663%
Source Step = 8.62507%
Source Step = 9.3835%
Source Step = 10.1419%
Source Step = 10.9004%
vernier = 0.0375423
Source Step = 11.8105%
Source Step = 12.9481%
Source Step = 14.0858%
Singular matrix:  Check node u1:n007
   Iteration No. 5
Singular matrix:  Check node u1:n007
   Iteration No. 1
Source Step = 14.3417%
Source Step = 14.6262%
Source Step = 14.9106%
Source Step = 15.195%
Source Step = 15.4794%
vernier = 0.0140784
Source Step = 15.8065%
Source Step = 16.2331%
Source Step = 16.6597%
Source Step = 17.0863%
Source Step = 17.5129%
vernier = 0.0211176
Source Step = 17.9822%
Source Step = 18.6221%
Source Step = 19.2621%
Source Step = 19.902%
Source Step = 20.5419%
vernier = 0.0316764
Source Step = 21.2138%
Source Step = 22.1737%
Source Step = 23.1336%
Source Step = 24.0935%
Source Step = 25.0534%
Starting source stepping with srcstepmethod=1
Source Step = 3.0303%
Source stepping failed

Pseudo Transient failed in finding the operating point at 150.114 ms.
Trouble finding operating point....skipping operating point for Transient analysis.

Simulation stopped by user.
Total elapsed time: 952.750 seconds.

Files loaded:
C:\Users\avent\OneDrive\Documents\EE499-FYP\LTSpice Boost Converter\LTC1871_BOM_Caps_Rev5b_WithCin.net
C:\Users\avent\AppData\Local\LTspice\lib\cmp\standard.dio
C:\Users\avent\AppData\Local\LTspice\lib\cmp\standard.mos
C:\Users\avent\AppData\Local\LTspice\lib\sub\LTC1871.sub

