LTspice 24.1.3 for Windows
Circuit: C:\Users\avent\Documents\EE499-FYP\LTSpice Boost Converter\LTC1871_BOM_Caps_Rev5b_WithCin_2_Min_Value_Test.net
Start Time: Thu Apr  9 14:57:19 2026
solver = Alternate
Maximum thread count: 16
tnom = 27
temp = 27
method = trap
Per .tran options, skipping operating point for transient analysis.
Total elapsed time: 16.668 seconds.

Files loaded:
C:\Users\avent\Documents\EE499-FYP\LTSpice Boost Converter\LTC1871_BOM_Caps_Rev5b_WithCin_2_Min_Value_Test.net
C:\Users\avent\AppData\Local\LTspice\lib\cmp\standard.dio
C:\Users\avent\AppData\Local\LTspice\lib\cmp\standard.mos
C:\Users\avent\AppData\Local\LTspice\lib\sub\LTC1871.sub

Vout_before: AVG(V(OUT))=12.2261675106 FROM 0 TO 0.0004
Vin_before: AVG(V(IN))=7.94754320538 FROM 0 TO 0.0004
Vout_ripple_pre: PP(V(OUT))=0.164596557617 FROM 0 TO 0.0004
Vout_droop1: MIN(V(OUT))=12.1341657639 FROM 0.0005 TO 0.0014
Vout_post1: AVG(V(OUT))=12.2317431132 FROM 0.001 TO 0.0014
Vin_droop1: MIN(V(IN))=7.68419742584 FROM 0.0005 TO 0.0014
Vout_idle: AVG(V(OUT))=12.2204999963 FROM 0.0021 TO 0.0034
Vout_droop2: MIN(V(OUT))=12.0993709564 FROM 0.0035 TO 0.0044
Vout_post2: AVG(V(OUT))=12.238992622 FROM 0.0038 TO 0.0044
Vin_droop2: MIN(V(IN))=7.58507299423 FROM 0.0035 TO 0.0044
Vout_ripple: PP(V(OUT))=0.288249015808 FROM 0.0038 TO 0.0044
IL_peak: MAX(I(L1))=10.3919248581 FROM 0.0039 TO 0.0044
IL_peak_pre: MAX(I(L1))=7.13211345673 FROM 0 TO 0.0004
Pin: AVG(V(IN)*(-I(V1)))=25.532646088 FROM 0.0042 TO 0.0044
Pout: AVG(V(OUT)*I(I1))=24.477985244 FROM 0.0038 TO 0.0044
LoadReg: abs(Vout_before-Vout_post2)=0.0128251113988
Eff: Pout/Pin*100=95.8693633229
Vin_drop1: Vin_before-Vin_droop1=0.263345779535
Vin_drop2: Vin_before-Vin_droop2=0.362470211145
DC_dev: RMS(V(out) - 12.1985)=0.0728090373803 FROM 0 TO 0.005
