LTspice 24.1.10 for Windows
Circuit: C:\Users\avent\OneDrive\Documents\EE499-FYP\LTSpice Boost Converter\LTC1871_BOM_Caps_Rev5b_WithCin_2.net
Start Time: Sun Apr 12 14:36:15 2026
solver = Normal
Maximum thread count: 16
tnom = 27
temp = 27
method = trap
Instance "m1:M1": Length shorter than recommended for a level 3 MOSFET.
Instance "m1:M2": Length shorter than recommended for a level 3 MOSFET.
Per .tran options, skipping operating point for transient analysis.
Total elapsed time: 6.011 seconds.

Files loaded:
C:\Users\avent\OneDrive\Documents\EE499-FYP\LTSpice Boost Converter\LTC1871_BOM_Caps_Rev5b_WithCin_2.net
C:\Users\avent\AppData\Local\LTspice\lib\cmp\standard.dio
C:\Users\avent\AppData\Local\LTspice\lib\sub\SQ4184EY_PS.LIB
C:\Users\avent\AppData\Local\LTspice\lib\sub\LTC1871.sub

vout_before: AVG(V(OUT))=12.2587755831 FROM 0 TO 0.0004
vin_before: AVG(V(IN))=9.5568729505 FROM 0 TO 0.0004
vout_ripple_pre: PP(V(OUT))=0.224987030029 FROM 0 TO 0.0004
vout_droop1: MIN(V(OUT))=12.1466350555 FROM 0.0005 TO 0.0014
vout_post1: AVG(V(OUT))=12.275140392 FROM 0.001 TO 0.0014
vin_droop1: MIN(V(IN))=9.29884052277 FROM 0.0005 TO 0.0014
vout_idle: AVG(V(OUT))=12.2542080182 FROM 0.0021 TO 0.0034
vout_droop2: MIN(V(OUT))=12.1213245392 FROM 0.0035 TO 0.0044
vout_post2: AVG(V(OUT))=12.3118002755 FROM 0.0038 TO 0.0044
vin_droop2: MIN(V(IN))=9.18806266785 FROM 0.0035 TO 0.0044
vout_ripple: PP(V(OUT))=0.390461921692 FROM 0.0038 TO 0.0044
il_peak: MAX(I(L1))=10.6723241806 FROM 0.0039 TO 0.0044
il_peak_pre: MAX(I(L1))=6.84864664078 FROM 0 TO 0.0004
pin: AVG(V(IN)*(-I(V1)))=30.1696471761 FROM 0.0042 TO 0.0044
pout: AVG(V(OUT)*I(I1))=24.6236005511 FROM 0.0038 TO 0.0044
loadreg: abs(Vout_before-Vout_post2)=0.0530246924136
eff: Pout/Pin*100=81.6171313086
vin_drop1: Vin_before-Vin_droop1=0.258032427732
vin_drop2: Vin_before-Vin_droop2=0.368810282651
dc_dev: RMS(V(out) - 12.1985)=0.116234516071 FROM 0 TO 0.005
