LTspice 24.1.10 for Windows
Circuit: C:\Users\avent\Downloads\LTC1871_Startup_CSS.net
Start Time: Sun Apr  5 22:28:57 2026
solver = Normal
Maximum thread count: 16
tnom = 27
temp = 27
method = trap
Direct Newton iteration failed to find .op point.  (Use ".option noopiter" to skip.)
Starting Gmin stepping
Gmin = 10
Gmin = 1.07374
Gmin = 0.115292
Gmin = 0.0123794
vernier = 0.5
vernier = 0.25
Gmin = 0.00621676
vernier = 0.333333
vernier = 0.444444
Gmin = 0.0026387
vernier = 0.592592
vernier = 0.790123
Gmin = 0.000701203
vernier = 1
Gmin = 9.32954e-05
Gmin = 1.00175e-05
Gmin = 1.07562e-06
Gmin = 1.15494e-07
Gmin = 1.24011e-08
Gmin = 1.33156e-09
Gmin = 1.42975e-10
Gmin = 1.53518e-11
Gmin = 1.64839e-12
Gmin = 1.76994e-13
Gmin = 0
Gmin stepping succeeded in finding the operating point.

.step css_val=1e-09
.step css_val=2.2e-09
.step css_val=4.7e-09
.step css_val=1e-08
.step css_val=2.2e-08
.step css_val=4.7e-08
Total elapsed time: 13.414 seconds.

Files loaded:
C:\Users\avent\Downloads\LTC1871_Startup_CSS.net
C:\Users\avent\AppData\Local\LTspice\lib\cmp\standard.dio
C:\Users\avent\AppData\Local\LTspice\lib\cmp\standard.mos
C:\Users\avent\AppData\Local\LTspice\lib\sub\LTC1871.sub


Measurement: vout_peak
  step	MAX(V(OUT))	FROM	TO
     1	9.1282787323	0	0.005
     2	9.1282787323	0	0.005
     3	9.1282787323	0	0.005
     4	9.1282787323	0	0.005
     5	9.1282787323	0	0.005
     6	9.1282787323	0	0.005

Measurement: vout_ss
  step	AVG(V(OUT))	FROM	TO
     1	9.12827587128	0.004	0.005
     2	9.12827587128	0.004	0.005
     3	9.12827587128	0.004	0.005
     4	9.12827587128	0.004	0.005
     5	9.12827587128	0.004	0.005
     6	9.12827587128	0.004	0.005

Measurement: overshoot
  step	(Vout_peak - Vout_SS) / Vout_SS * 100
     1	3.13424235183e-05
     2	3.13424239075e-05
     3	3.13424239075e-05
     4	3.13424239075e-05
     5	3.13424239075e-05
     6	3.13424239075e-05
Measurement "t_settle" FAIL'ed
Measurement "t_settle2" FAIL'ed
