LTspice 24.1.10 for Windows
Circuit: C:\Users\avent\Downloads\LTC1871-1_F018A.net
Start Time: Mon Apr  6 08:09:56 2026
solver = Normal
Maximum thread count: 16
tnom = 27
temp = 27
method = trap
Direct Newton iteration for .op point succeeded.
Total elapsed time: 1.149 seconds.

Files loaded:
C:\Users\avent\Downloads\LTC1871-1_F018A.net
C:\Users\avent\AppData\Local\LTspice\lib\cmp\standard.dio
C:\Users\avent\AppData\Local\LTspice\lib\cmp\standard.mos
C:\Users\avent\AppData\Local\LTspice\lib\sub\LTC1871-1.sub

