LTspice 24.1.10 for Windows
Circuit: C:\Users\avent\Downloads\LTC1871_WC_VIN8V.net
Start Time: Thu Apr  2 08:32:00 2026
solver = Normal
Maximum thread count: 16
tnom = 27
temp = 27
method = trap
Direct Newton iteration failed to find .op point.  (Use ".option noopiter" to skip.)
Starting Gmin stepping
Gmin = 10
Gmin = 1.07374
Gmin = 0.115292
Gmin = 0.0123794
vernier = 0.5
vernier = 0.25
vernier = 0.125
Gmin = 0.00682909
vernier = 0.0625
vernier = 0.0833333
Gmin = 0.00594062
vernier = 0.111111
vernier = 0.148148
Gmin = 0.00456854
vernier = 0.197531
Gmin = 0.00299321
vernier = 0.263374
vernier = 0.351165
Gmin = 0.00151149
vernier = 0.46822
vernier = 0.624294
Gmin = 0.0005228
vernier = 0.832392
Gmin = 9.8378e-05
vernier = 1
Gmin = 1.09296e-05
Gmin = 1.17356e-06
Gmin = 1.2601e-07
Gmin = 1.35302e-08
Gmin = 1.4528e-09
Gmin = 1.55993e-10
Gmin = 1.67496e-11
Gmin = 1.79848e-12
Gmin = 1.9311e-13
Gmin = 0
Gmin stepping succeeded in finding the operating point.

Total elapsed time: 5.947 seconds.

Files loaded:
C:\Users\avent\Downloads\LTC1871_WC_VIN8V.net
C:\Users\avent\AppData\Local\LTspice\lib\cmp\standard.dio
C:\Users\avent\AppData\Local\LTspice\lib\cmp\standard.mos
C:\Users\avent\AppData\Local\LTspice\lib\sub\LTC1871.sub

vout_before: AVG(V(OUT))=12.1761936876 FROM 0 TO 0.0004
vout_droop1: MIN(V(OUT))=12.1005849838 FROM 0.0005 TO 0.0014
vout_recov1: TIME=0.000543455384181 at 0.000543455384181
vout_idle: AVG(V(OUT))=12.1903731252 FROM 0.0021 TO 0.0034
vout_droop2: MIN(V(OUT))=12.089553833 FROM 0.0035 TO 0.0044
vout_recov2: TIME=0.00350241846383 at 0.00350241846383
vout_ripple: PP(V(OUT))=0.113639831543 FROM 0.0036 TO 0.0044
il_peak: MAX(I(L1))=3.50025653839 FROM 0 TO 0.0004
pin: AVG(V(IN)*(-I(V1)))=25.7490087378 FROM 0.0036 TO 0.0044
pout: AVG(V(OUT)*I(I1))=24.362693103 FROM 0.0036 TO 0.0044
dc_dev: RMS(V(out) - 12.1985)=0.0567895604373 FROM 0 TO 0.005
