LTspice 24.1.10 for Windows
Circuit: C:\Users\avent\OneDrive\Documents\EE499-FYP\LTSpice Boost Converter\LTC1871_BOM_Caps_Rev4.net
Start Time: Mon Apr  6 11:08:20 2026
solver = Normal
Maximum thread count: 16
tnom = 27
temp = 27
method = trap
Direct Newton iteration failed to find .op point.  (Use ".option noopiter" to skip.)
Starting Gmin stepping
Gmin = 10
Gmin = 1.07374
Gmin = 0.115292
Gmin = 0.0123794
vernier = 0.5
vernier = 0.25
vernier = 0.125
Gmin = 0.00682909
vernier = 0.0625
vernier = 0.0833333
Gmin = 0.00594062
vernier = 0.111111
vernier = 0.0555555
Gmin = 0.00486935
vernier = 0.0277778
vernier = 0.0138889
vernier = 0.00694444
vernier = 0.00347222
vernier = 0.00173611
vernier = 0.000868055
vernier = 0.000434028
Gmin = 0
Gmin stepping failed

Starting source stepping with srcstepmethod=0
Source Step = 3.0303%
vernier = 0.25
Source Step = 0.0177557%
Source Step = 0.0473485%
Source Step = 0.0769413%
Source Step = 0.106534%
Source Step = 0.136127%
vernier = 0.00146484
Source Step = 0.167199%
Source Step = 0.211589%
Source Step = 0.255978%
Source Step = 0.300367%
Source Step = 0.344756%
Source Step = 0.389145%
vernier = 0.00219727
Source Step = 0.455729%
Source Step = 0.522313%
Source Step = 0.588897%
Source Step = 0.655481%
Source Step = 0.722064%
vernier = 0.0032959
Source Step = 0.818611%
Source Step = 0.918487%
Source Step = 1.01836%
Source Step = 1.11824%
Source Step = 1.21811%
vernier = 0.00494385
Source Step = 1.35794%
Source Step = 1.50775%
Source Step = 1.65757%
Source Step = 1.80738%
Source Step = 1.95719%
vernier = 0.00741577
Source Step = 2.15944%
Source Step = 2.38416%
Source Step = 2.60888%
Source Step = 2.8336%
Source Step = 3.05832%
vernier = 0.0111237
Source Step = 3.35046%
Source Step = 3.68754%
Source Step = 4.02462%
Source Step = 4.3617%
Source Step = 4.69878%
vernier = 0.0166855
Source Step = 5.12013%
Source Step = 5.62575%
Source Step = 6.13137%
Source Step = 6.637%
Source Step = 7.14262%
vernier = 0.0250282
Source Step = 7.74936%
Source Step = 8.50779%
Source Step = 9.26622%
Source Step = 10.0247%
Source Step = 10.7831%
vernier = 0.0375423
Source Step = 11.6553%
Source Step = 12.7929%
Source Step = 13.9306%
Source Step = 13.9875%
Source Step = 14.0586%
Source Step = 14.1297%
Source Step = 14.2008%
Source Step = 14.2719%
vernier = 0.00351959
Source Step = 14.3607%
Source Step = 14.4674%
Source Step = 14.5741%
Source Step = 14.6807%
Source Step = 14.7874%
vernier = 0.00527939
Source Step = 14.9154%
Source Step = 15.0753%
Source Step = 15.2353%
Source Step = 15.3953%
Source Step = 15.5553%
vernier = 0.00791909
Source Step = 15.7393%
Source Step = 15.9792%
Source Step = 16.2192%
Source Step = 16.4592%
Source Step = 16.6991%
vernier = 0.0118786
Source Step = 16.9631%
Source Step = 17.3231%
Source Step = 17.683%
Source Step = 18.043%
Source Step = 18.4029%
vernier = 0.0178179
Source Step = 18.7809%
Source Step = 19.3208%
Source Step = 19.8608%
Source Step = 20.4007%
Source Step = 20.9407%
Source Step = 21.4806%
vernier = 0.0267269
Source Step = 22.2905%
Source Step = 23.1004%
Source Step = 23.9103%
Source Step = 24.7202%
Source Step = 25.5301%
vernier = 0.0400904
Source Step = 26.7045%
Source Step = 27.9194%
Source Step = 29.1342%
Source Step = 30.3491%
Source Step = 31.5639%
vernier = 0.0601356
Source Step = 33.2647%
Source Step = 35.087%
Source Step = 36.9093%
Source Step = 38.7316%
Source Step = 40.5539%
vernier = 0.0902034
Source Step = 43.014%
Source Step = 45.7474%
Source Step = 48.4809%
Source Step = 51.2143%
Source Step = 53.9477%
vernier = 0.135305
Source Step = 57.5012%
Source Step = 61.6013%
Source Step = 65.7015%
Source Step = 69.8017%
Source Step = 73.9018%
vernier = 0.202958
Source Step = 79.027%
Source Step = 85.1772%
Source Step = 91.3275%
Source Step = 92.0001%
Source Step = 92.0962%
Source Step = 92.1923%
Source Step = 92.2884%
Source Step = 92.3845%
Source Step = 92.4806%
Source Step = 92.5767%
Source Step = 92.6728%
Source Step = 92.7689%
Source Step = 92.865%
Source Step = 92.9611%
Source Step = 93.0572%
Source Step = 93.1533%
vernier = 0.00475682
Source Step = 93.2686%
Source Step = 93.4128%
Source Step = 93.5569%
Source Step = 93.7011%
Source Step = 93.8452%
vernier = 0.00713523
Source Step = 94.011%
Source Step = 94.2272%
Source Step = 94.4434%
Source Step = 94.6596%
Source Step = 94.8759%
vernier = 0.0107028
Source Step = 95.1137%
Source Step = 95.438%
Source Step = 95.7623%
Source Step = 96.0867%
Source Step = 96.411%
vernier = 0.0160543
Source Step = 96.7516%
Source Step = 97.238%
Source Step = 97.7245%
Source Step = 98.211%
Source Step = 98.6975%
Source Step = 99.184%
vernier = 0.0240814
Source Step = 99.9138%
Source stepping succeeded in finding the operating point.

Total elapsed time: 3.588 seconds.

Files loaded:
C:\Users\avent\OneDrive\Documents\EE499-FYP\LTSpice Boost Converter\LTC1871_BOM_Caps_Rev4.net
C:\Users\avent\AppData\Local\LTspice\lib\cmp\standard.dio
C:\Users\avent\AppData\Local\LTspice\lib\cmp\standard.mos
C:\Users\avent\AppData\Local\LTspice\lib\sub\LTC1871.sub

vout_before: AVG(V(OUT))=12.6682211677 FROM 0 TO 0.0004
vout_droop1: MIN(V(OUT))=12.0690994263 FROM 0.0005 TO 0.0014
vout_recov1: TIME=0.000618767685937 at 0.000618767685937
vout_idle: AVG(V(OUT))=12.4222391104 FROM 0.0021 TO 0.0034
vout_droop2: MIN(V(OUT))=12.0195245743 FROM 0.0035 TO 0.0044
vout_recov2: TIME=0.00355201528363 at 0.00355201528363
vout_ripple: PP(V(OUT))=1.67661476135 FROM 0.0036 TO 0.0044
il_peak: MAX(I(L1))=12.6430864334 FROM 0 TO 0.0004
pin: AVG(V(IN)*(-I(V1)))=23.7707750007 FROM 0.0036 TO 0.0044
pout: AVG(V(OUT)*I(I1))=25.7433846539 FROM 0.0036 TO 0.0044
dc_dev: RMS(V(out) - 12.1985)=0.751792478394 FROM 0 TO 0.005
