LTspice 24.1.10 for Windows
Circuit: C:\Users\avent\Downloads\LTC1871_Rev1.net
Start Time: Mon Apr  6 00:30:41 2026
solver = Normal
Maximum thread count: 16
tnom = 27
temp = 27
method = trap
Direct Newton iteration for .op point succeeded.
Total elapsed time: 0.894 seconds.

Files loaded:
C:\Users\avent\Downloads\LTC1871_Rev1.net
C:\Users\avent\AppData\Local\LTspice\lib\cmp\standard.dio
C:\Users\avent\AppData\Local\LTspice\lib\cmp\standard.mos
C:\Users\avent\AppData\Local\LTspice\lib\sub\LTC1871.sub

