LTspice 24.1.3 for Windows
Circuit: C:\Users\avent\Documents\EE499-FYP\LTSpice Boost Converter\LTC1871_BOM_Caps_Rev5b_WithCin_2_Min_Value_Test.net
Start Time: Tue Apr  7 20:26:36 2026
solver = Alternate
Maximum thread count: 16
tnom = 27
temp = 27
method = trap
Per .tran options, skipping operating point for transient analysis.
Total elapsed time: 14.119 seconds.

Files loaded:
C:\Users\avent\Documents\EE499-FYP\LTSpice Boost Converter\LTC1871_BOM_Caps_Rev5b_WithCin_2_Min_Value_Test.net
C:\Users\avent\AppData\Local\LTspice\lib\cmp\standard.dio
C:\Users\avent\AppData\Local\LTspice\lib\cmp\standard.mos
C:\Users\avent\AppData\Local\LTspice\lib\sub\LTC1871.sub

Vout_before: AVG(V(OUT))=12.226144444 FROM 0 TO 0.0004
Vin_before: AVG(V(IN))=7.94753426088 FROM 0 TO 0.0004
Vout_ripple_pre: PP(V(OUT))=0.164750099182 FROM 0 TO 0.0004
Vout_droop1: MIN(V(OUT))=12.1342344284 FROM 0.0005 TO 0.0014
Vout_post1: AVG(V(OUT))=12.2318100066 FROM 0.001 TO 0.0014
Vin_droop1: MIN(V(IN))=7.68460321426 FROM 0.0005 TO 0.0014
Vout_idle: AVG(V(OUT))=12.2205199938 FROM 0.0021 TO 0.0034
Vout_droop2: MIN(V(OUT))=12.0993480682 FROM 0.0035 TO 0.0044
Vout_post2: AVG(V(OUT))=12.239027729 FROM 0.0038 TO 0.0044
Vin_droop2: MIN(V(IN))=7.58522701263 FROM 0.0035 TO 0.0044
Vout_ripple: PP(V(OUT))=0.288105010986 FROM 0.0038 TO 0.0044
IL_peak: MAX(I(L1))=10.3865098953 FROM 0.0039 TO 0.0044
IL_peak_pre: MAX(I(L1))=7.13678741455 FROM 0 TO 0.0004
Pin: AVG(V(IN)*(-I(V1)))=25.5160679963 FROM 0.0042 TO 0.0044
Pout: AVG(V(OUT)*I(I1))=24.4780554581 FROM 0.0038 TO 0.0044
LoadReg: abs(Vout_before-Vout_post2)=0.0128832850298
Eff: Pout/Pin*100=95.9319259598
Vin_drop1: Vin_before-Vin_droop1=0.262931046619
Vin_drop2: Vin_before-Vin_droop2=0.362307248248
DC_dev: RMS(V(out) - 12.1985)=0.0728539845317 FROM 0 TO 0.005
