LTspice 24.1.3 for Windows
Circuit: C:\Users\avent\Downloads\LTC3890_BUCK_SEPIC.net
Start Time: Fri Mar  6 22:59:50 2026
solver = Normal
Maximum thread count: 16
tnom = 27
temp = 27
method = trap
Direct Newton iteration for .op point succeeded.
Total elapsed time: 13.896 seconds.

Files loaded:
C:\Users\avent\Downloads\LTC3890_BUCK_SEPIC.net
C:\Users\avent\AppData\Local\LTspice\lib\cmp\standard.dio
C:\Users\avent\AppData\Local\LTspice\lib\cmp\standard.mos
C:\Users\avent\AppData\Local\LTspice\lib\sub\LTC3890.sub

